/scratch2/NCEPDEV/stmp3/Ting.Lei/tmpnwprd/EXP1region/forecast_firstguess_00/dynf006.nc
netcdf
grib2
2019-10-02_18:00:00
FV3R
/scratch2/NCEPDEV/stmp3/Ting.Lei/tmpnwprd/EXP1region/forecast_firstguess_00/phyf006.nc

 &NAMPGB
 KPO=47,PO=1000.,975.,950.,925.,900.,875.,850.,825.,800.,775.,750.,725.,700.,675.,650.,625.,600.,575.,550.,525.,500.,475.,450.,425.,400.,375.,350.,325.,300.,275.,250.,225.,200.,175.,150.,125.,100.,70.,50.,30.,20.,10.,7.,5.,3.,2.,1.,
 /
